@<TRIPOS>MOLECULE
processed_data/test/2vw5.pdb/ligand_BC6_D/ligand.pdb
 78 79 0 0 0
SMALL
GASTEIGER

@<TRIPOS>ATOM
      1  O37       57.6640   10.9000   40.7540 O.2   500  BC6500     -0.2702
      2  C21       58.1220   10.8910   41.8840 C.2   500  BC6500      0.2437
      3  C20       59.5180   10.4720   41.9970 C.2   500  BC6500      0.0076
      4  C36       59.8840    9.1290   41.4150 C.3   500  BC6500     -0.0351
      5  C19       60.3910   11.3610   42.5340 C.2   500  BC6500     -0.0762
      6  C18       61.8710   11.1720   42.6960 C.3   500  BC6500     -0.0337
      7  C17       62.3950   11.9400   43.9040 C.3   500  BC6500     -0.0433
      8  C16       62.3840   13.4680   43.7740 C.3   500  BC6500     -0.0024
      9  C35       63.2960   13.9740   42.6520 C.3   500  BC6500     -0.0587
     10  N22       57.3670   11.3020   42.8930 N.am  500  BC6500     -0.2817
     11  C3        57.6110   11.1110   44.2220 C.ar  500  BC6500      0.0374
     12  C4        57.2490   12.1580   45.0790 C.ar  500  BC6500      0.0011
     13  C5        57.4710   12.0290   46.4330 C.ar  500  BC6500      0.1189
     14  O36       57.1420   13.0390   47.2610 O.3   500  BC6500     -0.5067
     15  C6        58.0420   10.8710   46.9630 C.ar  500  BC6500     -0.0169
     16  C1        58.4010    9.8160   46.1260 C.ar  500  BC6500     -0.0419
     17  C2        58.1680    9.9340   44.7470 C.ar  500  BC6500     -0.0371
     18  C7        59.0520    8.5840   46.7320 C.3   500  BC6500     -0.0248
     19  C8        60.5910    8.6720   46.8950 C.3   500  BC6500     -0.0375
     20  C25       61.3690    8.7410   45.5740 C.3   500  BC6500     -0.0620
     21  C9        61.0300    9.8050   47.8510 C.3   500  BC6500     -0.0213
     22  C10       62.5360   10.0670   47.9400 C.3   500  BC6500      0.0849
     23  O26       63.2240    8.8570   48.2780 O.3   500  BC6500     -0.3772
     24  C27       64.5770    8.8390   47.7930 C.3   500  BC6500      0.0369
     25  C11       62.8440   11.1750   48.9660 C.3   500  BC6500      0.0872
     26  O28       62.3580   10.7300   50.2560 O.3   500  BC6500     -0.3887
     27  C12       62.1760   12.4910   48.5570 C.3   500  BC6500      0.0031
     28  C29       62.4180   13.5680   49.6310 C.3   500  BC6500     -0.0565
     29  C13       62.7370   13.0350   47.2440 C.2   500  BC6500     -0.0762
     30  C14       61.9780   13.6930   46.3090 C.2   500  BC6500     -0.0359
     31  C30       60.4910   13.9430   46.4680 C.3   500  BC6500     -0.0403
     32  C15       62.7060   14.1970   45.0970 C.3   500  BC6500      0.1280
     33  O31       62.4530   15.5940   44.8840 O.3   500  BC6500     -0.4425
     34  C32       63.1810   16.5080   45.7340 C.2   500  BC6500      0.3982
     35  O33       64.0330   16.0830   46.5040 O.2   500  BC6500     -0.2267
     36  N34       62.8740   17.7810   45.5670 N.am  500  BC6500     -0.2950
     37 H          58.9996    8.6393   41.0643 H     500  BC6500      0.0279
     38 H          60.3492    8.5285   42.1686 H     500  BC6500      0.0279
     39 H          60.5627    9.2667   40.5994 H     500  BC6500      0.0279
     40 H          59.9982   12.2564   42.8640 H     500  BC6500      0.0576
     41 H          62.3665   11.5252   41.8159 H     500  BC6500      0.0308
     42 H          62.0655   10.1305   42.8457 H     500  BC6500      0.0308
     43 H          63.4049   11.6317   44.0773 H     500  BC6500      0.0272
     44 H          61.7281   11.7101   44.7086 H     500  BC6500      0.0272
     45 H          61.3746   13.7095   43.5140 H     500  BC6500      0.0337
     46 H          64.3138   13.7441   42.8887 H     500  BC6500      0.0234
     47 H          63.1837   15.0333   42.5515 H     500  BC6500      0.0234
     48 H          63.0274   13.4980   41.7321 H     500  BC6500      0.0234
     49 H          56.5473   11.7949   42.6600 H     500  BC6500      0.1551
     50 H          56.8205   13.0171   44.7005 H     500  BC6500      0.0673
     51 H          56.7581   13.8212   46.9164 H     500  BC6500      0.2921
     52 H          58.1992   10.7955   47.9802 H     500  BC6500      0.0657
     53 H          58.4070    9.1527   44.1166 H     500  BC6500      0.0639
     54 H          58.8319    7.7478   46.1018 H     500  BC6500      0.0316
     55 H          58.6508    8.4877   47.7193 H     500  BC6500      0.0316
     56 H          60.8527    7.7374   47.3456 H     500  BC6500      0.0302
     57 H          61.1451    9.6611   45.0758 H     500  BC6500      0.0233
     58 H          61.0857    7.9194   44.9499 H     500  BC6500      0.0233
     59 H          62.4187    8.6906   45.7752 H     500  BC6500      0.0233
     60 H          60.6829    9.5573   48.8324 H     500  BC6500      0.0294
     61 H          60.6062   10.7010   47.4478 H     500  BC6500      0.0294
     62 H          62.8797   10.4034   46.9842 H     500  BC6500      0.0622
     63 H          65.0435    7.9172   48.0715 H     500  BC6500      0.0524
     64 H          65.1197    9.6566   48.2196 H     500  BC6500      0.0524
     65 H          64.5750    8.9298   46.7269 H     500  BC6500      0.0524
     66 H          63.8976   11.3559   49.0118 H     500  BC6500      0.0625
     67 H          61.4029   10.5690   50.2037 H     500  BC6500      0.2099
     68 H          61.1336   12.2783   48.4429 H     500  BC6500      0.0366
     69 H          63.4679   13.7551   49.7182 H     500  BC6500      0.0236
     70 H          62.0373   13.2264   50.5708 H     500  BC6500      0.0236
     71 H          61.9169   14.4707   49.3501 H     500  BC6500      0.0236
     72 H          63.7415   12.9002   47.0497 H     500  BC6500      0.0576
     73 H          60.1247   14.4714   45.6127 H     500  BC6500      0.0276
     74 H          60.3196   14.5267   47.3483 H     500  BC6500      0.0276
     75 H          59.9793   13.0073   46.5552 H     500  BC6500      0.0276
     76 H          63.7320   14.0020   45.3300 H     500  BC6500      0.0785
     77 H          62.1735   18.0383   44.9248 H     500  BC6500      0.1482
     78 H          63.3455   18.4731   46.0846 H     500  BC6500      0.1482
@<TRIPOS>BOND
     1     1     2    2
     2     4     3    1
     3     2     3    1
     4     2    10   am
     5     3     5    2
     6     5     6    1
     7     9     8    1
     8     6     7    1
     9    10    11    1
    10     8     7    1
    11     8    32    1
    12    11    17   ar
    13    11    12   ar
    14    17    16   ar
    15    33    32    1
    16    33    34    1
    17    12    13   ar
    18    32    30    1
    19    36    34   am
    20    20    19    1
    21    34    35    2
    22    16    18    1
    23    16    15   ar
    24    30    31    1
    25    30    29    2
    26    13    15   ar
    27    13    14    1
    28    18    19    1
    29    19    21    1
    30    29    27    1
    31    24    23    1
    32    21    22    1
    33    22    23    1
    34    22    25    1
    35    27    25    1
    36    27    28    1
    37    25    26    1
    38     4    37    1
    39     4    38    1
    40     4    39    1
    41     5    40    1
    42     6    41    1
    43     6    42    1
    44     7    43    1
    45     7    44    1
    46     8    45    1
    47     9    46    1
    48     9    47    1
    49     9    48    1
    50    10    49    1
    51    12    50    1
    52    14    51    1
    53    15    52    1
    54    17    53    1
    55    18    54    1
    56    18    55    1
    57    19    56    1
    58    20    57    1
    59    20    58    1
    60    20    59    1
    61    21    60    1
    62    21    61    1
    63    22    62    1
    64    24    63    1
    65    24    64    1
    66    24    65    1
    67    25    66    1
    68    26    67    1
    69    27    68    1
    70    28    69    1
    71    28    70    1
    72    28    71    1
    73    29    72    1
    74    31    73    1
    75    31    74    1
    76    31    75    1
    77    32    76    1
    78    36    77    1
    79    36    78    1
